matpower/matpower-converter/src/test/resources/ieee9mat.xiidm
<?xml version="1.0" encoding="UTF-8"?>
<iidm:network xmlns:iidm="http://www.powsybl.org/schema/iidm/1_4" id="ieee9" caseDate="2020-01-01T00:00:00.000Z" forecastDistance="0" sourceFormat="MATPOWER">
    <iidm:substation id="SUB-1">
        <iidm:voltageLevel id="VL-1" nominalV="1.0" topologyKind="BUS_BREAKER">
            <iidm:busBreakerTopology>
                <iidm:bus id="BUS-1" v="1.04" angle="0.0"/>
            </iidm:busBreakerTopology>
            <iidm:generator id="GEN-1" energySource="OTHER" minP="0.0" maxP="98.5" voltageRegulatorOn="true" targetP="71.64102" targetV="1.04" targetQ="27.04592" busId="BUS-1" connectionStatus="CONNECTED">
                <iidm:minMaxReactiveLimits minQ="-99990.0" maxQ="999900.0"/>
            </iidm:generator>
        </iidm:voltageLevel>
        <iidm:voltageLevel id="VL-4" nominalV="1.0" topologyKind="BUS_BREAKER">
            <iidm:busBreakerTopology>
                <iidm:bus id="BUS-4" v="1.025" angle="-2.216"/>
            </iidm:busBreakerTopology>
        </iidm:voltageLevel>
        <iidm:twoWindingsTransformer id="TWT-4-1" r="0.0" x="5.76E-4" g="0.0" b="0.0" ratedU1="1.0" ratedU2="1.0" busId1="BUS-4" connectionStatus1="CONNECTED" voltageLevelId1="VL-4" busId2="BUS-1" connectionStatus2="CONNECTED" voltageLevelId2="VL-1"/>
    </iidm:substation>
    <iidm:substation id="SUB-2">
        <iidm:voltageLevel id="VL-2" nominalV="1.0" topologyKind="BUS_BREAKER">
            <iidm:busBreakerTopology>
                <iidm:bus id="BUS-2" v="1.025" angle="9.28"/>
            </iidm:busBreakerTopology>
            <iidm:generator id="GEN-2" energySource="OTHER" minP="0.0" maxP="263.0" voltageRegulatorOn="true" targetP="163.0" targetV="1.025" targetQ="6.65366" busId="BUS-2" connectionStatus="CONNECTED">
                <iidm:minMaxReactiveLimits minQ="-99990.0" maxQ="999900.0"/>
            </iidm:generator>
        </iidm:voltageLevel>
        <iidm:voltageLevel id="VL-7" nominalV="1.0" topologyKind="BUS_BREAKER">
            <iidm:busBreakerTopology>
                <iidm:bus id="BUS-7" v="1.025" angle="3.7197"/>
            </iidm:busBreakerTopology>
        </iidm:voltageLevel>
        <iidm:twoWindingsTransformer id="TWT-7-2" r="0.0" x="6.25E-4" g="0.0" b="0.0" ratedU1="1.0" ratedU2="1.0" busId1="BUS-7" connectionStatus1="CONNECTED" voltageLevelId1="VL-7" busId2="BUS-2" connectionStatus2="CONNECTED" voltageLevelId2="VL-2"/>
    </iidm:substation>
    <iidm:substation id="SUB-3">
        <iidm:voltageLevel id="VL-3" nominalV="1.0" topologyKind="BUS_BREAKER">
            <iidm:busBreakerTopology>
                <iidm:bus id="BUS-3" v="1.025" angle="4.6647"/>
            </iidm:busBreakerTopology>
            <iidm:generator id="GEN-3" energySource="OTHER" minP="0.0" maxP="185.0" voltageRegulatorOn="true" targetP="85.0" targetV="1.025" targetQ="-10.8597" busId="BUS-3" connectionStatus="CONNECTED">
                <iidm:minMaxReactiveLimits minQ="-99990.0" maxQ="999900.0"/>
            </iidm:generator>
        </iidm:voltageLevel>
        <iidm:voltageLevel id="VL-9" nominalV="1.0" topologyKind="BUS_BREAKER">
            <iidm:busBreakerTopology>
                <iidm:bus id="BUS-9" v="1.032" angle="1.9667"/>
            </iidm:busBreakerTopology>
        </iidm:voltageLevel>
        <iidm:twoWindingsTransformer id="TWT-9-3" r="0.0" x="5.86E-4" g="0.0" b="0.0" ratedU1="1.0" ratedU2="1.0" busId1="BUS-9" connectionStatus1="CONNECTED" voltageLevelId1="VL-9" busId2="BUS-3" connectionStatus2="CONNECTED" voltageLevelId2="VL-3"/>
    </iidm:substation>
    <iidm:substation id="SUB-4">
        <iidm:voltageLevel id="VL-5" nominalV="1.0" topologyKind="BUS_BREAKER">
            <iidm:busBreakerTopology>
                <iidm:bus id="BUS-5" v="0.995" angle="-3.988"/>
            </iidm:busBreakerTopology>
            <iidm:load id="LOAD-5" loadType="UNDEFINED" p0="125.0" q0="50.0" busId="BUS-5" connectionStatus="CONNECTED"/>
        </iidm:voltageLevel>
    </iidm:substation>
    <iidm:substation id="SUB-5">
        <iidm:voltageLevel id="VL-6" nominalV="1.0" topologyKind="BUS_BREAKER">
            <iidm:busBreakerTopology>
                <iidm:bus id="BUS-6" v="1.012" angle="-3.687"/>
            </iidm:busBreakerTopology>
            <iidm:load id="LOAD-6" loadType="UNDEFINED" p0="90.0" q0="30.0" busId="BUS-6" connectionStatus="CONNECTED"/>
        </iidm:voltageLevel>
    </iidm:substation>
    <iidm:substation id="SUB-6">
        <iidm:voltageLevel id="VL-8" nominalV="1.0" topologyKind="BUS_BREAKER">
            <iidm:busBreakerTopology>
                <iidm:bus id="BUS-8" v="1.015" angle="0.7275"/>
            </iidm:busBreakerTopology>
            <iidm:load id="LOAD-8" loadType="UNDEFINED" p0="100.0" q0="35.0" busId="BUS-8" connectionStatus="CONNECTED"/>
        </iidm:voltageLevel>
    </iidm:substation>
    <iidm:line id="LINE-7-8" r="8.5E-5" x="7.199999999999999E-4" g1="0.0" b1="7.449999999999999" g2="0.0" b2="7.449999999999999" busId1="BUS-7" connectionStatus1="CONNECTED" voltageLevelId1="VL-7" busId2="BUS-8" connectionStatus2="CONNECTED" voltageLevelId2="VL-8"/>
    <iidm:line id="LINE-9-8" r="1.19E-4" x="0.001008" g1="0.0" b1="10.45" g2="0.0" b2="10.45" busId1="BUS-9" connectionStatus1="CONNECTED" voltageLevelId1="VL-9" busId2="BUS-8" connectionStatus2="CONNECTED" voltageLevelId2="VL-8"/>
    <iidm:line id="LINE-7-5" r="3.2E-4" x="0.00161" g1="0.0" b1="15.299999999999999" g2="0.0" b2="15.299999999999999" busId1="BUS-7" connectionStatus1="CONNECTED" voltageLevelId1="VL-7" busId2="BUS-5" connectionStatus2="CONNECTED" voltageLevelId2="VL-5"/>
    <iidm:line id="LINE-9-6" r="3.9E-4" x="0.0017000000000000001" g1="0.0" b1="17.9" g2="0.0" b2="17.9" busId1="BUS-9" connectionStatus1="CONNECTED" voltageLevelId1="VL-9" busId2="BUS-6" connectionStatus2="CONNECTED" voltageLevelId2="VL-6"/>
    <iidm:line id="LINE-5-4" r="1.0E-4" x="8.500000000000001E-4" g1="0.0" b1="8.799999999999999" g2="0.0" b2="8.799999999999999" busId1="BUS-5" connectionStatus1="CONNECTED" voltageLevelId1="VL-5" busId2="BUS-4" connectionStatus2="CONNECTED" voltageLevelId2="VL-4"/>
    <iidm:line id="LINE-6-4" r="1.7E-4" x="9.2E-4" g1="0.0" b1="7.9" g2="0.0" b2="7.9" busId1="BUS-6" connectionStatus1="CONNECTED" voltageLevelId1="VL-6" busId2="BUS-4" connectionStatus2="CONNECTED" voltageLevelId2="VL-4"/>
</iidm:network>
